5713517


 38 40  0  0  0  0  0  0  0  0999 V2000
    2.5221    6.0770    9.7980 O   0  0  0  0  0  0  0  0  0  0  0  0
    2.0774    5.4633    9.1457 N   0  0  0  0  0  0  0  0  0  0  0  0
    2.6030    4.7349    8.7063 C   0  0  0  0  0  0  0  0  0  0  0  0
    2.1581    4.1211    8.0539 C   0  0  0  0  0  0  0  0  0  0  0  0
    5.2258    5.0810    8.6815 C   0  0  0  0  0  0  0  0  0  0  0  0
    3.5732    4.6201    8.9192 C   0  0  0  0  0  0  0  0  0  0  0  0
    4.2555    5.1958    8.4686 C   0  0  0  0  0  0  0  0  0  0  0  0
    5.5138    4.3905    9.3450 C   0  0  0  0  0  0  0  0  0  0  0  0
    3.8612    3.9295    9.5826 C   0  0  0  0  0  0  0  0  0  0  0  0
    4.8315    3.8148    9.7955 C   0  0  0  0  0  0  0  0  0  0  0  0
    6.4842    4.2757    9.5579 O   0  0  0  0  0  0  0  0  0  0  0  0
    6.7720    3.5867   10.2231 C   0  0  0  0  0  0  0  0  0  0  0  0
    5.9081    5.6568    8.2310 C   0  0  0  0  0  0  0  0  0  0  0  0
    5.7039    6.6166    8.0386 S   0  0  0  0  0  0  0  0  0  0  0  0
    7.3221    6.9447    7.5154 N   0  0  0  0  0  0  0  0  0  0  0  0
    6.3474    7.1680    7.5077 C   0  0  0  0  0  0  0  0  0  0  0  0
    6.0163    7.9427    6.9691 C   0  0  0  0  0  0  0  0  0  0  0  0
    6.6598    8.4941    6.4382 C   0  0  0  0  0  0  0  0  0  0  0  0
    7.9656    7.4961    6.9845 C   0  0  0  0  0  0  0  0  0  0  0  0
    7.6345    8.2708    6.4459 C   0  0  0  0  0  0  0  0  0  0  0  0
    1.1796    6.9594   10.4454 O   0  0  0  0  0  0  0  0  0  0  0  0
    2.0928    6.9477   10.0381 C   0  0  0  0  0  0  0  0  0  0  0  0
    3.5445    9.5247    9.5365 C   0  0  0  0  0  0  0  0  0  0  0  0
    3.7177    9.0082   10.3752 C   0  0  0  0  0  0  0  0  0  0  0  0
    2.8874    9.1821    8.8651 C   0  0  0  0  0  0  0  0  0  0  0  0
    3.2338    8.1493   10.5424 C   0  0  0  0  0  0  0  0  0  0  0  0
    2.4035    8.3231    9.0323 C   0  0  0  0  0  0  0  0  0  0  0  0
    2.5767    7.8067    9.8709 C   0  0  0  0  0  0  0  0  0  0  0  0
    4.0284   10.3837    9.3694 S   0  0  0  0  0  0  0  0  0  0  0  0
    4.1606   10.5008   10.3536 O   0  0  0  0  0  0  0  0  0  0  0  0
    3.8963   10.2666    8.3851 O   0  0  0  0  0  0  0  0  0  0  0  0
    4.5123   11.2427    9.2022 N   0  0  0  0  0  0  0  0  0  0  0  0
    5.3753   11.2403    8.6969 C   0  0  0  0  0  0  0  0  0  0  0  0
    6.2323   11.4446    9.1700 C   0  0  0  0  0  0  0  0  0  0  0  0
    7.0998   11.4002    8.6746 C   0  0  0  0  0  0  0  0  0  0  0  0
    4.1333   12.1041    9.5403 C   0  0  0  0  0  0  0  0  0  0  0  0
    3.7911   12.7873    8.8951 C   0  0  0  0  0  0  0  0  0  0  0  0
    3.2997   13.5906    9.2314 C   0  0  0  0  0  0  0  0  0  0  0  0
 29 30  2  0  0  0
 29 31  2  0  0  0
 29 32  1  0  0  0
 29 23  1  0  0  0
 14 13  1  0  0  0
 14 16  1  0  0  0
  1  2  1  0  0  0
  1 22  1  0  0  0
 21 22  2  0  0  0
 11  8  1  0  0  0
 11 12  1  0  0  0
 32 33  1  0  0  0
 32 36  1  0  0  0
  2  3  2  0  0  0
 15 16  1  0  0  0
 15 19  2  0  0  0
 33 34  1  0  0  0
 36 37  1  0  0  0
 34 35  1  0  0  0
 37 38  1  0  0  0
 23 24  2  0  0  0
 23 25  1  0  0  0
 24 26  1  0  0  0
 25 27  2  0  0  0
 26 28  2  0  0  0
 27 28  1  0  0  0
 28 22  1  0  0  0
  5  7  1  0  0  0
  5  8  2  0  0  0
  5 13  1  0  0  0
  6  7  2  0  0  0
  6  3  1  0  0  0
  6  9  1  0  0  0
  8 10  1  0  0  0
  3  4  1  0  0  0
  9 10  2  0  0  0
 16 17  2  0  0  0
 17 18  1  0  0  0
 18 20  2  0  0  0
 19 20  1  0  0  0
M  END
> <PUBCHEM_COMPOUND_CID>
5713517

> <PUBCHEM_COMPOUND_CANONICALIZED>
1

> <PUBCHEM_CACTVS_COMPLEXITY>
849

> <PUBCHEM_CACTVS_HBOND_ACCEPTOR>
9

> <PUBCHEM_CACTVS_HBOND_DONOR>
0

> <PUBCHEM_CACTVS_ROTATABLE_BOND>
14

> <PUBCHEM_CACTVS_SUBSKEYS>
AAADcfB7OABgAAAAAAAAAAAAAAAAAAAAAAA8YIAAAAAAAAAB0AAAHgQEQAAADAzF2ga+j5IYFAqoAzD3THDC2DB1KjAI2Dk+bNgMJvLktZuEMShkwBHo6YeYyOCOMAACAAAIAABgAAQAABAAAAAAAAAAAA==

> <PUBCHEM_IUPAC_OPENEYE_NAME>
[(Z)-1-[4-methoxy-3-(2-pyridylsulfanylmethyl)phenyl]ethylideneamino] 4-(dipropylsulfamoyl)benzoate

> <PUBCHEM_IUPAC_CAS_NAME>
4-(dipropylsulfamoyl)benzoic acid [(Z)-1-[4-methoxy-3-[(2-pyridinylthio)methyl]phenyl]ethylideneamino] ester

> <PUBCHEM_IUPAC_NAME_MARKUP>
[(<I>Z</I>)-1-[4-methoxy-3-(pyridin-2-ylsulfanylmethyl)phenyl]ethylideneamino] 4-(dipropylsulfamoyl)benzoate

> <PUBCHEM_IUPAC_NAME>
[(Z)-1-[4-methoxy-3-(pyridin-2-ylsulfanylmethyl)phenyl]ethylideneamino] 4-(dipropylsulfamoyl)benzoate

> <PUBCHEM_IUPAC_SYSTEMATIC_NAME>
[(Z)-1-[4-methoxy-3-(pyridin-2-ylsulfanylmethyl)phenyl]ethylideneamino] 4-(dipropylsulfamoyl)benzoate

> <PUBCHEM_IUPAC_TRADITIONAL_NAME>
4-(dipropylsulfamoyl)benzoic acid [(Z)-1-[4-methoxy-3-[(2-pyridylthio)methyl]phenyl]ethylideneamino] ester

> <PUBCHEM_IUPAC_INCHI>
InChI=1S/C28H33N3O5S2/c1-5-17-31(18-6-2)38(33,34)25-13-10-22(11-14-25)28(32)36-30-21(3)23-12-15-26(35-4)24(19-23)20-37-27-9-7-8-16-29-27/h7-16,19H,5-6,17-18,20H2,1-4H3/b30-21-

> <PUBCHEM_IUPAC_INCHIKEY>
NYXXIOSFOWNQPD-OFWBYEQRSA-N

> <PUBCHEM_XLOGP3_AA>
5.8

> <PUBCHEM_EXACT_MASS>
555.18616351

> <PUBCHEM_MOLECULAR_FORMULA>
C28H33N3O5S2

> <PUBCHEM_MOLECULAR_WEIGHT>
555.7

> <PUBCHEM_SMILES>
CCCN(CCC)S(=O)(=O)C1=CC=C(C=C1)C(=O)O/N=C(/C)\C2=CC(=C(C=C2)OC)CSC3=CC=CC=N3

> <PUBCHEM_CONNECTIVITY_SMILES>
CCCN(CCC)S(=O)(=O)C1=CC=C(C=C1)C(=O)ON=C(C)C2=CC(=C(C=C2)OC)CSC3=CC=CC=N3

> <PUBCHEM_CACTVS_TPSA>
132

> <PUBCHEM_MONOISOTOPIC_WEIGHT>
555.18616351

> <PUBCHEM_TOTAL_CHARGE>
0

> <PUBCHEM_HEAVY_ATOM_COUNT>
38

> <PUBCHEM_ATOM_DEF_STEREO_COUNT>
0

> <PUBCHEM_ATOM_UDEF_STEREO_COUNT>
0

> <PUBCHEM_BOND_DEF_STEREO_COUNT>
1

> <PUBCHEM_BOND_UDEF_STEREO_COUNT>
0

> <PUBCHEM_ISOTOPIC_ATOM_COUNT>
0

> <PUBCHEM_COMPONENT_COUNT>
1

> <PUBCHEM_CACTVS_TAUTO_COUNT>
-1

> <PUBCHEM_COORDINATE_TYPE>
1
5
255

> <PUBCHEM_BONDANNOTATIONS>
10  33  8
10  37  8
15  18  8
15  19  8
18  20  8
19  21  8
20  22  8
21  22  8
24  26  8
24  27  8
25  26  8
25  30  8
27  31  8
30  31  8
33  35  8
35  36  8
36  38  8
37  38  8

> <minimizedAffinity>
-5.21735

> <CNNscore>
0.1707655340

> <CNNaffinity>
4.4853463173

> <CNN_VS>
0.7659425735

> <CNNaffinity_variance>
1.3852537870

$$$$
5713517


 38 40  0  0  0  0  0  0  0  0999 V2000
    2.3352    6.1539    9.9056 O   0  0  0  0  0  0  0  0  0  0  0  0
    1.8924    5.4878    9.3055 N   0  0  0  0  0  0  0  0  0  0  0  0
    2.4197    5.0335    8.5875 C   0  0  0  0  0  0  0  0  0  0  0  0
    1.9768    4.3673    7.9874 C   0  0  0  0  0  0  0  0  0  0  0  0
    4.6364    6.2501    7.8090 C   0  0  0  0  0  0  0  0  0  0  0  0
    3.3899    5.2453    8.4697 C   0  0  0  0  0  0  0  0  0  0  0  0
    3.6662    6.0383    7.9268 C   0  0  0  0  0  0  0  0  0  0  0  0
    5.3302    5.6688    8.2340 C   0  0  0  0  0  0  0  0  0  0  0  0
    4.0837    4.6639    8.8947 C   0  0  0  0  0  0  0  0  0  0  0  0
    5.0539    4.8757    8.7768 C   0  0  0  0  0  0  0  0  0  0  0  0
    6.3005    5.8806    8.1162 O   0  0  0  0  0  0  0  0  0  0  0  0
    6.9919    5.3412    8.5968 C   0  0  0  0  0  0  0  0  0  0  0  0
    4.9127    7.0432    7.2662 C   0  0  0  0  0  0  0  0  0  0  0  0
    4.3215    7.8484    7.2206 S   0  0  0  0  0  0  0  0  0  0  0  0
    4.6551    8.7652    5.7894 N   0  0  0  0  0  0  0  0  0  0  0  0
    4.6511    8.6868    6.7863 C   0  0  0  0  0  0  0  0  0  0  0  0
    4.9766    9.4467    7.3490 C   0  0  0  0  0  0  0  0  0  0  0  0
    5.3062   10.2850    6.9147 C   0  0  0  0  0  0  0  0  0  0  0  0
    4.9847    9.6035    5.3552 C   0  0  0  0  0  0  0  0  0  0  0  0
    5.3102   10.3634    5.9178 C   0  0  0  0  0  0  0  0  0  0  0  0
    0.9394    6.5135   10.8660 O   0  0  0  0  0  0  0  0  0  0  0  0
    1.7820    6.8113   10.4174 C   0  0  0  0  0  0  0  0  0  0  0  0
    2.6503    9.6767   10.6065 C   0  0  0  0  0  0  0  0  0  0  0  0
    3.1958    8.9592   11.0398 C   0  0  0  0  0  0  0  0  0  0  0  0
    1.8153    9.4390   10.1103 C   0  0  0  0  0  0  0  0  0  0  0  0
    2.9064    8.0041   10.9767 C   0  0  0  0  0  0  0  0  0  0  0  0
    1.5259    8.4838   10.0472 C   0  0  0  0  0  0  0  0  0  0  0  0
    2.0714    7.7664   10.4804 C   0  0  0  0  0  0  0  0  0  0  0  0
    2.9397   10.6318   10.6696 S   0  0  0  0  0  0  0  0  0  0  0  0
    3.0565   10.6619    9.6769 O   0  0  0  0  0  0  0  0  0  0  0  0
    2.8229   10.6016   11.6623 O   0  0  0  0  0  0  0  0  0  0  0  0
    3.2291   11.5869   10.7327 N   0  0  0  0  0  0  0  0  0  0  0  0
    2.6197   12.2683   11.1381 C   0  0  0  0  0  0  0  0  0  0  0  0
    2.1914   12.9629   10.5602 C   0  0  0  0  0  0  0  0  0  0  0  0
    1.5523   13.6205   10.9592 C   0  0  0  0  0  0  0  0  0  0  0  0
    4.1279   11.8606   10.3903 C   0  0  0  0  0  0  0  0  0  0  0  0
    4.8292   12.1813   11.0270 C   0  0  0  0  0  0  0  0  0  0  0  0
    5.7560   12.3646   10.6993 C   0  0  0  0  0  0  0  0  0  0  0  0
 29 30  2  0  0  0
 29 31  2  0  0  0
 29 32  1  0  0  0
 29 23  1  0  0  0
 14 13  1  0  0  0
 14 16  1  0  0  0
  1  2  1  0  0  0
  1 22  1  0  0  0
 21 22  2  0  0  0
 11  8  1  0  0  0
 11 12  1  0  0  0
 32 33  1  0  0  0
 32 36  1  0  0  0
  2  3  2  0  0  0
 15 16  1  0  0  0
 15 19  2  0  0  0
 33 34  1  0  0  0
 36 37  1  0  0  0
 34 35  1  0  0  0
 37 38  1  0  0  0
 23 24  2  0  0  0
 23 25  1  0  0  0
 24 26  1  0  0  0
 25 27  2  0  0  0
 26 28  2  0  0  0
 27 28  1  0  0  0
 28 22  1  0  0  0
  5  7  1  0  0  0
  5  8  2  0  0  0
  5 13  1  0  0  0
  6  7  2  0  0  0
  6  3  1  0  0  0
  6  9  1  0  0  0
  8 10  1  0  0  0
  3  4  1  0  0  0
  9 10  2  0  0  0
 16 17  2  0  0  0
 17 18  1  0  0  0
 18 20  2  0  0  0
 19 20  1  0  0  0
M  END
> <PUBCHEM_COMPOUND_CID>
5713517

> <PUBCHEM_COMPOUND_CANONICALIZED>
1

> <PUBCHEM_CACTVS_COMPLEXITY>
849

> <PUBCHEM_CACTVS_HBOND_ACCEPTOR>
9

> <PUBCHEM_CACTVS_HBOND_DONOR>
0

> <PUBCHEM_CACTVS_ROTATABLE_BOND>
14

> <PUBCHEM_CACTVS_SUBSKEYS>
AAADcfB7OABgAAAAAAAAAAAAAAAAAAAAAAA8YIAAAAAAAAAB0AAAHgQEQAAADAzF2ga+j5IYFAqoAzD3THDC2DB1KjAI2Dk+bNgMJvLktZuEMShkwBHo6YeYyOCOMAACAAAIAABgAAQAABAAAAAAAAAAAA==

> <PUBCHEM_IUPAC_OPENEYE_NAME>
[(Z)-1-[4-methoxy-3-(2-pyridylsulfanylmethyl)phenyl]ethylideneamino] 4-(dipropylsulfamoyl)benzoate

> <PUBCHEM_IUPAC_CAS_NAME>
4-(dipropylsulfamoyl)benzoic acid [(Z)-1-[4-methoxy-3-[(2-pyridinylthio)methyl]phenyl]ethylideneamino] ester

> <PUBCHEM_IUPAC_NAME_MARKUP>
[(<I>Z</I>)-1-[4-methoxy-3-(pyridin-2-ylsulfanylmethyl)phenyl]ethylideneamino] 4-(dipropylsulfamoyl)benzoate

> <PUBCHEM_IUPAC_NAME>
[(Z)-1-[4-methoxy-3-(pyridin-2-ylsulfanylmethyl)phenyl]ethylideneamino] 4-(dipropylsulfamoyl)benzoate

> <PUBCHEM_IUPAC_SYSTEMATIC_NAME>
[(Z)-1-[4-methoxy-3-(pyridin-2-ylsulfanylmethyl)phenyl]ethylideneamino] 4-(dipropylsulfamoyl)benzoate

> <PUBCHEM_IUPAC_TRADITIONAL_NAME>
4-(dipropylsulfamoyl)benzoic acid [(Z)-1-[4-methoxy-3-[(2-pyridylthio)methyl]phenyl]ethylideneamino] ester

> <PUBCHEM_IUPAC_INCHI>
InChI=1S/C28H33N3O5S2/c1-5-17-31(18-6-2)38(33,34)25-13-10-22(11-14-25)28(32)36-30-21(3)23-12-15-26(35-4)24(19-23)20-37-27-9-7-8-16-29-27/h7-16,19H,5-6,17-18,20H2,1-4H3/b30-21-

> <PUBCHEM_IUPAC_INCHIKEY>
NYXXIOSFOWNQPD-OFWBYEQRSA-N

> <PUBCHEM_XLOGP3_AA>
5.8

> <PUBCHEM_EXACT_MASS>
555.18616351

> <PUBCHEM_MOLECULAR_FORMULA>
C28H33N3O5S2

> <PUBCHEM_MOLECULAR_WEIGHT>
555.7

> <PUBCHEM_SMILES>
CCCN(CCC)S(=O)(=O)C1=CC=C(C=C1)C(=O)O/N=C(/C)\C2=CC(=C(C=C2)OC)CSC3=CC=CC=N3

> <PUBCHEM_CONNECTIVITY_SMILES>
CCCN(CCC)S(=O)(=O)C1=CC=C(C=C1)C(=O)ON=C(C)C2=CC(=C(C=C2)OC)CSC3=CC=CC=N3

> <PUBCHEM_CACTVS_TPSA>
132

> <PUBCHEM_MONOISOTOPIC_WEIGHT>
555.18616351

> <PUBCHEM_TOTAL_CHARGE>
0

> <PUBCHEM_HEAVY_ATOM_COUNT>
38

> <PUBCHEM_ATOM_DEF_STEREO_COUNT>
0

> <PUBCHEM_ATOM_UDEF_STEREO_COUNT>
0

> <PUBCHEM_BOND_DEF_STEREO_COUNT>
1

> <PUBCHEM_BOND_UDEF_STEREO_COUNT>
0

> <PUBCHEM_ISOTOPIC_ATOM_COUNT>
0

> <PUBCHEM_COMPONENT_COUNT>
1

> <PUBCHEM_CACTVS_TAUTO_COUNT>
-1

> <PUBCHEM_COORDINATE_TYPE>
1
5
255

> <PUBCHEM_BONDANNOTATIONS>
10  33  8
10  37  8
15  18  8
15  19  8
18  20  8
19  21  8
20  22  8
21  22  8
24  26  8
24  27  8
25  26  8
25  30  8
27  31  8
30  31  8
33  35  8
35  36  8
36  38  8
37  38  8

> <minimizedAffinity>
-5.13933

> <CNNscore>
0.1461822391

> <CNNaffinity>
4.4870853424

> <CNN_VS>
0.6559321880

> <CNNaffinity_variance>
1.6593014002

$$$$
5713517


 38 40  0  0  0  0  0  0  0  0999 V2000
    5.2464   11.1015    5.4532 O   0  0  0  0  0  0  0  0  0  0  0  0
    4.7161   11.1650    6.2986 N   0  0  0  0  0  0  0  0  0  0  0  0
    5.1846   11.2647    7.1764 C   0  0  0  0  0  0  0  0  0  0  0  0
    4.6542   11.3282    8.0219 C   0  0  0  0  0  0  0  0  0  0  0  0
    7.7104   10.4931    7.3347 C   0  0  0  0  0  0  0  0  0  0  0  0
    6.1834   11.3009    7.2088 C   0  0  0  0  0  0  0  0  0  0  0  0
    6.7116   10.4569    7.3023 C   0  0  0  0  0  0  0  0  0  0  0  0
    8.1810   11.3733    7.2736 C   0  0  0  0  0  0  0  0  0  0  0  0
    6.6540   12.1811    7.1476 C   0  0  0  0  0  0  0  0  0  0  0  0
    7.6528   12.2173    7.1800 C   0  0  0  0  0  0  0  0  0  0  0  0
    9.1799   11.4096    7.3059 O   0  0  0  0  0  0  0  0  0  0  0  0
    9.6474   12.2930    7.3372 C   0  0  0  0  0  0  0  0  0  0  0  0
    8.2385    9.6492    7.4283 C   0  0  0  0  0  0  0  0  0  0  0  0
    7.9829    8.8384    6.9018 S   0  0  0  0  0  0  0  0  0  0  0  0
    9.2316    7.9181    6.1313 N   0  0  0  0  0  0  0  0  0  0  0  0
    8.5870    8.0416    6.8857 C   0  0  0  0  0  0  0  0  0  0  0  0
    8.5465    7.3685    7.6240 C   0  0  0  0  0  0  0  0  0  0  0  0
    9.1506    6.5717    7.6080 C   0  0  0  0  0  0  0  0  0  0  0  0
    9.8358    7.1213    6.1152 C   0  0  0  0  0  0  0  0  0  0  0  0
    9.7952    6.4482    6.8536 C   0  0  0  0  0  0  0  0  0  0  0  0
    3.8917   11.5075    4.4532 O   0  0  0  0  0  0  0  0  0  0  0  0
    4.7776   11.0589    4.5709 C   0  0  0  0  0  0  0  0  0  0  0  0
    6.0289    9.5850    2.2770 C   0  0  0  0  0  0  0  0  0  0  0  0
    5.1212    9.3225    2.6045 C   0  0  0  0  0  0  0  0  0  0  0  0
    6.5194   10.3389    2.7141 C   0  0  0  0  0  0  0  0  0  0  0  0
    4.7041    9.8137    3.3691 C   0  0  0  0  0  0  0  0  0  0  0  0
    6.1023   10.8302    3.4788 C   0  0  0  0  0  0  0  0  0  0  0  0
    5.1946   10.5676    3.8063 C   0  0  0  0  0  0  0  0  0  0  0  0
    6.4460    9.0938    1.5123 S   0  0  0  0  0  0  0  0  0  0  0  0
    5.5374    8.8504    1.1731 O   0  0  0  0  0  0  0  0  0  0  0  0
    7.3546    9.3371    1.8516 O   0  0  0  0  0  0  0  0  0  0  0  0
    6.8631    8.6025    0.7477 N   0  0  0  0  0  0  0  0  0  0  0  0
    6.6810    8.8925   -0.1918 C   0  0  0  0  0  0  0  0  0  0  0  0
    7.4054    9.3205   -0.7322 C   0  0  0  0  0  0  0  0  0  0  0  0
    7.1948    9.7166   -1.6260 C   0  0  0  0  0  0  0  0  0  0  0  0
    7.4622    7.8212    0.9227 C   0  0  0  0  0  0  0  0  0  0  0  0
    7.1592    6.8968    0.6908 C   0  0  0  0  0  0  0  0  0  0  0  0
    7.7953    6.1288    0.7645 C   0  0  0  0  0  0  0  0  0  0  0  0
 29 30  2  0  0  0
 29 31  2  0  0  0
 29 32  1  0  0  0
 29 23  1  0  0  0
 14 13  1  0  0  0
 14 16  1  0  0  0
  1  2  1  0  0  0
  1 22  1  0  0  0
 21 22  2  0  0  0
 11  8  1  0  0  0
 11 12  1  0  0  0
 32 33  1  0  0  0
 32 36  1  0  0  0
  2  3  2  0  0  0
 15 16  1  0  0  0
 15 19  2  0  0  0
 33 34  1  0  0  0
 36 37  1  0  0  0
 34 35  1  0  0  0
 37 38  1  0  0  0
 23 24  2  0  0  0
 23 25  1  0  0  0
 24 26  1  0  0  0
 25 27  2  0  0  0
 26 28  2  0  0  0
 27 28  1  0  0  0
 28 22  1  0  0  0
  5  7  1  0  0  0
  5  8  2  0  0  0
  5 13  1  0  0  0
  6  7  2  0  0  0
  6  3  1  0  0  0
  6  9  1  0  0  0
  8 10  1  0  0  0
  3  4  1  0  0  0
  9 10  2  0  0  0
 16 17  2  0  0  0
 17 18  1  0  0  0
 18 20  2  0  0  0
 19 20  1  0  0  0
M  END
> <PUBCHEM_COMPOUND_CID>
5713517

> <PUBCHEM_COMPOUND_CANONICALIZED>
1

> <PUBCHEM_CACTVS_COMPLEXITY>
849

> <PUBCHEM_CACTVS_HBOND_ACCEPTOR>
9

> <PUBCHEM_CACTVS_HBOND_DONOR>
0

> <PUBCHEM_CACTVS_ROTATABLE_BOND>
14

> <PUBCHEM_CACTVS_SUBSKEYS>
AAADcfB7OABgAAAAAAAAAAAAAAAAAAAAAAA8YIAAAAAAAAAB0AAAHgQEQAAADAzF2ga+j5IYFAqoAzD3THDC2DB1KjAI2Dk+bNgMJvLktZuEMShkwBHo6YeYyOCOMAACAAAIAABgAAQAABAAAAAAAAAAAA==

> <PUBCHEM_IUPAC_OPENEYE_NAME>
[(Z)-1-[4-methoxy-3-(2-pyridylsulfanylmethyl)phenyl]ethylideneamino] 4-(dipropylsulfamoyl)benzoate

> <PUBCHEM_IUPAC_CAS_NAME>
4-(dipropylsulfamoyl)benzoic acid [(Z)-1-[4-methoxy-3-[(2-pyridinylthio)methyl]phenyl]ethylideneamino] ester

> <PUBCHEM_IUPAC_NAME_MARKUP>
[(<I>Z</I>)-1-[4-methoxy-3-(pyridin-2-ylsulfanylmethyl)phenyl]ethylideneamino] 4-(dipropylsulfamoyl)benzoate

> <PUBCHEM_IUPAC_NAME>
[(Z)-1-[4-methoxy-3-(pyridin-2-ylsulfanylmethyl)phenyl]ethylideneamino] 4-(dipropylsulfamoyl)benzoate

> <PUBCHEM_IUPAC_SYSTEMATIC_NAME>
[(Z)-1-[4-methoxy-3-(pyridin-2-ylsulfanylmethyl)phenyl]ethylideneamino] 4-(dipropylsulfamoyl)benzoate

> <PUBCHEM_IUPAC_TRADITIONAL_NAME>
4-(dipropylsulfamoyl)benzoic acid [(Z)-1-[4-methoxy-3-[(2-pyridylthio)methyl]phenyl]ethylideneamino] ester

> <PUBCHEM_IUPAC_INCHI>
InChI=1S/C28H33N3O5S2/c1-5-17-31(18-6-2)38(33,34)25-13-10-22(11-14-25)28(32)36-30-21(3)23-12-15-26(35-4)24(19-23)20-37-27-9-7-8-16-29-27/h7-16,19H,5-6,17-18,20H2,1-4H3/b30-21-

> <PUBCHEM_IUPAC_INCHIKEY>
NYXXIOSFOWNQPD-OFWBYEQRSA-N

> <PUBCHEM_XLOGP3_AA>
5.8

> <PUBCHEM_EXACT_MASS>
555.18616351

> <PUBCHEM_MOLECULAR_FORMULA>
C28H33N3O5S2

> <PUBCHEM_MOLECULAR_WEIGHT>
555.7

> <PUBCHEM_SMILES>
CCCN(CCC)S(=O)(=O)C1=CC=C(C=C1)C(=O)O/N=C(/C)\C2=CC(=C(C=C2)OC)CSC3=CC=CC=N3

> <PUBCHEM_CONNECTIVITY_SMILES>
CCCN(CCC)S(=O)(=O)C1=CC=C(C=C1)C(=O)ON=C(C)C2=CC(=C(C=C2)OC)CSC3=CC=CC=N3

> <PUBCHEM_CACTVS_TPSA>
132

> <PUBCHEM_MONOISOTOPIC_WEIGHT>
555.18616351

> <PUBCHEM_TOTAL_CHARGE>
0

> <PUBCHEM_HEAVY_ATOM_COUNT>
38

> <PUBCHEM_ATOM_DEF_STEREO_COUNT>
0

> <PUBCHEM_ATOM_UDEF_STEREO_COUNT>
0

> <PUBCHEM_BOND_DEF_STEREO_COUNT>
1

> <PUBCHEM_BOND_UDEF_STEREO_COUNT>
0

> <PUBCHEM_ISOTOPIC_ATOM_COUNT>
0

> <PUBCHEM_COMPONENT_COUNT>
1

> <PUBCHEM_CACTVS_TAUTO_COUNT>
-1

> <PUBCHEM_COORDINATE_TYPE>
1
5
255

> <PUBCHEM_BONDANNOTATIONS>
10  33  8
10  37  8
15  18  8
15  19  8
18  20  8
19  21  8
20  22  8
21  22  8
24  26  8
24  27  8
25  26  8
25  30  8
27  31  8
30  31  8
33  35  8
35  36  8
36  38  8
37  38  8

> <minimizedAffinity>
-4.69067

> <CNNscore>
0.1392832994

> <CNNaffinity>
4.9006347656

> <CNN_VS>
0.6825765967

> <CNNaffinity_variance>
0.5147820711

$$$$
5713517


 38 40  0  0  0  0  0  0  0  0999 V2000
    5.0719    9.7118    5.5535 O   0  0  0  0  0  0  0  0  0  0  0  0
    4.7319   10.6000    5.2444 N   0  0  0  0  0  0  0  0  0  0  0  0
    4.8428   10.8728    4.2888 C   0  0  0  0  0  0  0  0  0  0  0  0
    4.5028   11.7611    3.9797 C   0  0  0  0  0  0  0  0  0  0  0  0
    6.7338    9.5041    3.0435 C   0  0  0  0  0  0  0  0  0  0  0  0
    5.2937   10.2575    3.6422 C   0  0  0  0  0  0  0  0  0  0  0  0
    6.2829   10.1194    3.6901 C   0  0  0  0  0  0  0  0  0  0  0  0
    6.1954    9.0268    2.3491 C   0  0  0  0  0  0  0  0  0  0  0  0
    4.7553    9.7802    2.9477 C   0  0  0  0  0  0  0  0  0  0  0  0
    5.2062    9.1649    2.3011 C   0  0  0  0  0  0  0  0  0  0  0  0
    6.6463    8.4114    1.7024 O   0  0  0  0  0  0  0  0  0  0  0  0
    6.1147    7.9673    0.9812 C   0  0  0  0  0  0  0  0  0  0  0  0
    7.7231    9.3660    3.0915 C   0  0  0  0  0  0  0  0  0  0  0  0
    8.1874    9.3788    3.9770 S   0  0  0  0  0  0  0  0  0  0  0  0
    9.8910    9.2338    3.7002 N   0  0  0  0  0  0  0  0  0  0  0  0
    9.0452    8.8796    4.0991 C   0  0  0  0  0  0  0  0  0  0  0  0
    9.0572    8.0262    4.6201 C   0  0  0  0  0  0  0  0  0  0  0  0
    9.9151    7.5269    4.7422 C   0  0  0  0  0  0  0  0  0  0  0  0
   10.7488    8.7346    3.8223 C   0  0  0  0  0  0  0  0  0  0  0  0
   10.7609    7.8812    4.3433 C   0  0  0  0  0  0  0  0  0  0  0  0
    4.1964    9.7314    7.0478 O   0  0  0  0  0  0  0  0  0  0  0  0
    4.9982    9.4561    6.5174 C   0  0  0  0  0  0  0  0  0  0  0  0
    7.1822    7.8627    7.8180 C   0  0  0  0  0  0  0  0  0  0  0  0
    6.4113    7.3948    7.3858 C   0  0  0  0  0  0  0  0  0  0  0  0
    7.2250    8.8618    7.8166 C   0  0  0  0  0  0  0  0  0  0  0  0
    5.6833    7.9259    6.9523 C   0  0  0  0  0  0  0  0  0  0  0  0
    6.4970    9.3929    7.3831 C   0  0  0  0  0  0  0  0  0  0  0  0
    5.7261    8.9250    6.9509 C   0  0  0  0  0  0  0  0  0  0  0  0
    7.9102    7.3316    8.2515 S   0  0  0  0  0  0  0  0  0  0  0  0
    8.0652    8.0751    8.9021 O   0  0  0  0  0  0  0  0  0  0  0  0
    7.7552    6.5882    7.6010 O   0  0  0  0  0  0  0  0  0  0  0  0
    8.6381    6.8005    8.6850 N   0  0  0  0  0  0  0  0  0  0  0  0
    9.5844    7.1211    8.6421 C   0  0  0  0  0  0  0  0  0  0  0  0
   10.2811    6.5638    8.1906 C   0  0  0  0  0  0  0  0  0  0  0  0
   11.2219    6.8962    8.1246 C   0  0  0  0  0  0  0  0  0  0  0  0
    8.4199    5.9489    9.1614 C   0  0  0  0  0  0  0  0  0  0  0  0
    8.4818    5.9036   10.1586 C   0  0  0  0  0  0  0  0  0  0  0  0
    8.1839    5.0801   10.6412 C   0  0  0  0  0  0  0  0  0  0  0  0
 29 30  2  0  0  0
 29 31  2  0  0  0
 29 32  1  0  0  0
 29 23  1  0  0  0
 14 13  1  0  0  0
 14 16  1  0  0  0
  1  2  1  0  0  0
  1 22  1  0  0  0
 21 22  2  0  0  0
 11  8  1  0  0  0
 11 12  1  0  0  0
 32 33  1  0  0  0
 32 36  1  0  0  0
  2  3  2  0  0  0
 15 16  1  0  0  0
 15 19  2  0  0  0
 33 34  1  0  0  0
 36 37  1  0  0  0
 34 35  1  0  0  0
 37 38  1  0  0  0
 23 24  2  0  0  0
 23 25  1  0  0  0
 24 26  1  0  0  0
 25 27  2  0  0  0
 26 28  2  0  0  0
 27 28  1  0  0  0
 28 22  1  0  0  0
  5  7  1  0  0  0
  5  8  2  0  0  0
  5 13  1  0  0  0
  6  7  2  0  0  0
  6  3  1  0  0  0
  6  9  1  0  0  0
  8 10  1  0  0  0
  3  4  1  0  0  0
  9 10  2  0  0  0
 16 17  2  0  0  0
 17 18  1  0  0  0
 18 20  2  0  0  0
 19 20  1  0  0  0
M  END
> <PUBCHEM_COMPOUND_CID>
5713517

> <PUBCHEM_COMPOUND_CANONICALIZED>
1

> <PUBCHEM_CACTVS_COMPLEXITY>
849

> <PUBCHEM_CACTVS_HBOND_ACCEPTOR>
9

> <PUBCHEM_CACTVS_HBOND_DONOR>
0

> <PUBCHEM_CACTVS_ROTATABLE_BOND>
14

> <PUBCHEM_CACTVS_SUBSKEYS>
AAADcfB7OABgAAAAAAAAAAAAAAAAAAAAAAA8YIAAAAAAAAAB0AAAHgQEQAAADAzF2ga+j5IYFAqoAzD3THDC2DB1KjAI2Dk+bNgMJvLktZuEMShkwBHo6YeYyOCOMAACAAAIAABgAAQAABAAAAAAAAAAAA==

> <PUBCHEM_IUPAC_OPENEYE_NAME>
[(Z)-1-[4-methoxy-3-(2-pyridylsulfanylmethyl)phenyl]ethylideneamino] 4-(dipropylsulfamoyl)benzoate

> <PUBCHEM_IUPAC_CAS_NAME>
4-(dipropylsulfamoyl)benzoic acid [(Z)-1-[4-methoxy-3-[(2-pyridinylthio)methyl]phenyl]ethylideneamino] ester

> <PUBCHEM_IUPAC_NAME_MARKUP>
[(<I>Z</I>)-1-[4-methoxy-3-(pyridin-2-ylsulfanylmethyl)phenyl]ethylideneamino] 4-(dipropylsulfamoyl)benzoate

> <PUBCHEM_IUPAC_NAME>
[(Z)-1-[4-methoxy-3-(pyridin-2-ylsulfanylmethyl)phenyl]ethylideneamino] 4-(dipropylsulfamoyl)benzoate

> <PUBCHEM_IUPAC_SYSTEMATIC_NAME>
[(Z)-1-[4-methoxy-3-(pyridin-2-ylsulfanylmethyl)phenyl]ethylideneamino] 4-(dipropylsulfamoyl)benzoate

> <PUBCHEM_IUPAC_TRADITIONAL_NAME>
4-(dipropylsulfamoyl)benzoic acid [(Z)-1-[4-methoxy-3-[(2-pyridylthio)methyl]phenyl]ethylideneamino] ester

> <PUBCHEM_IUPAC_INCHI>
InChI=1S/C28H33N3O5S2/c1-5-17-31(18-6-2)38(33,34)25-13-10-22(11-14-25)28(32)36-30-21(3)23-12-15-26(35-4)24(19-23)20-37-27-9-7-8-16-29-27/h7-16,19H,5-6,17-18,20H2,1-4H3/b30-21-

> <PUBCHEM_IUPAC_INCHIKEY>
NYXXIOSFOWNQPD-OFWBYEQRSA-N

> <PUBCHEM_XLOGP3_AA>
5.8

> <PUBCHEM_EXACT_MASS>
555.18616351

> <PUBCHEM_MOLECULAR_FORMULA>
C28H33N3O5S2

> <PUBCHEM_MOLECULAR_WEIGHT>
555.7

> <PUBCHEM_SMILES>
CCCN(CCC)S(=O)(=O)C1=CC=C(C=C1)C(=O)O/N=C(/C)\C2=CC(=C(C=C2)OC)CSC3=CC=CC=N3

> <PUBCHEM_CONNECTIVITY_SMILES>
CCCN(CCC)S(=O)(=O)C1=CC=C(C=C1)C(=O)ON=C(C)C2=CC(=C(C=C2)OC)CSC3=CC=CC=N3

> <PUBCHEM_CACTVS_TPSA>
132

> <PUBCHEM_MONOISOTOPIC_WEIGHT>
555.18616351

> <PUBCHEM_TOTAL_CHARGE>
0

> <PUBCHEM_HEAVY_ATOM_COUNT>
38

> <PUBCHEM_ATOM_DEF_STEREO_COUNT>
0

> <PUBCHEM_ATOM_UDEF_STEREO_COUNT>
0

> <PUBCHEM_BOND_DEF_STEREO_COUNT>
1

> <PUBCHEM_BOND_UDEF_STEREO_COUNT>
0

> <PUBCHEM_ISOTOPIC_ATOM_COUNT>
0

> <PUBCHEM_COMPONENT_COUNT>
1

> <PUBCHEM_CACTVS_TAUTO_COUNT>
-1

> <PUBCHEM_COORDINATE_TYPE>
1
5
255

> <PUBCHEM_BONDANNOTATIONS>
10  33  8
10  37  8
15  18  8
15  19  8
18  20  8
19  21  8
20  22  8
21  22  8
24  26  8
24  27  8
25  26  8
25  30  8
27  31  8
30  31  8
33  35  8
35  36  8
36  38  8
37  38  8

> <minimizedAffinity>
-4.13236

> <CNNscore>
0.1357048154

> <CNNaffinity>
4.4091124535

> <CNN_VS>
0.5983377695

> <CNNaffinity_variance>
1.1551827192

$$$$
5713517


 38 40  0  0  0  0  0  0  0  0999 V2000
    5.4140    3.5203    9.7179 O   0  0  0  0  0  0  0  0  0  0  0  0
    4.9304    3.0192   10.4355 N   0  0  0  0  0  0  0  0  0  0  0  0
    3.9310    2.9863   10.4357 C   0  0  0  0  0  0  0  0  0  0  0  0
    3.4473    2.4851   11.1534 C   0  0  0  0  0  0  0  0  0  0  0  0
    2.6965    4.8981    9.0862 C   0  0  0  0  0  0  0  0  0  0  0  0
    3.4151    3.4544    9.7183 C   0  0  0  0  0  0  0  0  0  0  0  0
    3.2124    4.4299    9.8037 C   0  0  0  0  0  0  0  0  0  0  0  0
    2.3835    4.3907    8.2834 C   0  0  0  0  0  0  0  0  0  0  0  0
    3.1020    2.9471    8.9154 C   0  0  0  0  0  0  0  0  0  0  0  0
    2.5862    3.4152    8.1980 C   0  0  0  0  0  0  0  0  0  0  0  0
    1.8676    4.8589    7.5659 O   0  0  0  0  0  0  0  0  0  0  0  0
    1.8138    4.4629    6.6493 C   0  0  0  0  0  0  0  0  0  0  0  0
    2.4938    5.8736    9.1716 C   0  0  0  0  0  0  0  0  0  0  0  0
    3.1221    6.4734    9.6671 S   0  0  0  0  0  0  0  0  0  0  0  0
    2.2845    7.9769    9.8614 N   0  0  0  0  0  0  0  0  0  0  0  0
    3.0777    7.4635    9.5340 C   0  0  0  0  0  0  0  0  0  0  0  0
    3.8265    7.9401    9.0736 C   0  0  0  0  0  0  0  0  0  0  0  0
    3.7822    8.9302    8.9405 C   0  0  0  0  0  0  0  0  0  0  0  0
    2.2401    8.9670    9.7283 C   0  0  0  0  0  0  0  0  0  0  0  0
    2.9889    9.4437    9.2679 C   0  0  0  0  0  0  0  0  0  0  0  0
    6.9625    3.3476   10.4745 O   0  0  0  0  0  0  0  0  0  0  0  0
    6.3403    3.8595    9.8822 C   0  0  0  0  0  0  0  0  0  0  0  0
    7.2524    6.4130    8.5985 C   0  0  0  0  0  0  0  0  0  0  0  0
    6.9495    5.6479    8.0301 C   0  0  0  0  0  0  0  0  0  0  0  0
    7.2513    6.3268    9.5948 C   0  0  0  0  0  0  0  0  0  0  0  0
    6.6455    4.7968    8.4580 C   0  0  0  0  0  0  0  0  0  0  0  0
    6.9472    5.4756   10.0227 C   0  0  0  0  0  0  0  0  0  0  0  0
    6.6443    4.7106    9.4543 C   0  0  0  0  0  0  0  0  0  0  0  0
    7.5564    7.2641    8.1706 S   0  0  0  0  0  0  0  0  0  0  0  0
    7.9004    6.7472    7.3867 O   0  0  0  0  0  0  0  0  0  0  0  0
    7.2125    7.7810    8.9544 O   0  0  0  0  0  0  0  0  0  0  0  0
    7.8605    8.1152    7.7427 N   0  0  0  0  0  0  0  0  0  0  0  0
    8.8332    8.2672    7.5676 C   0  0  0  0  0  0  0  0  0  0  0  0
    9.3264    8.9780    8.0691 C   0  0  0  0  0  0  0  0  0  0  0  0
   10.3075    9.1044    7.9222 C   0  0  0  0  0  0  0  0  0  0  0  0
    7.1917    8.8144    7.4898 C   0  0  0  0  0  0  0  0  0  0  0  0
    6.9878    8.9858    6.5259 C   0  0  0  0  0  0  0  0  0  0  0  0
    6.2607    9.6248    6.2746 C   0  0  0  0  0  0  0  0  0  0  0  0
 29 30  2  0  0  0
 29 31  2  0  0  0
 29 32  1  0  0  0
 29 23  1  0  0  0
 14 13  1  0  0  0
 14 16  1  0  0  0
  1  2  1  0  0  0
  1 22  1  0  0  0
 21 22  2  0  0  0
 11  8  1  0  0  0
 11 12  1  0  0  0
 32 33  1  0  0  0
 32 36  1  0  0  0
  2  3  2  0  0  0
 15 16  1  0  0  0
 15 19  2  0  0  0
 33 34  1  0  0  0
 36 37  1  0  0  0
 34 35  1  0  0  0
 37 38  1  0  0  0
 23 24  2  0  0  0
 23 25  1  0  0  0
 24 26  1  0  0  0
 25 27  2  0  0  0
 26 28  2  0  0  0
 27 28  1  0  0  0
 28 22  1  0  0  0
  5  7  1  0  0  0
  5  8  2  0  0  0
  5 13  1  0  0  0
  6  7  2  0  0  0
  6  3  1  0  0  0
  6  9  1  0  0  0
  8 10  1  0  0  0
  3  4  1  0  0  0
  9 10  2  0  0  0
 16 17  2  0  0  0
 17 18  1  0  0  0
 18 20  2  0  0  0
 19 20  1  0  0  0
M  END
> <PUBCHEM_COMPOUND_CID>
5713517

> <PUBCHEM_COMPOUND_CANONICALIZED>
1

> <PUBCHEM_CACTVS_COMPLEXITY>
849

> <PUBCHEM_CACTVS_HBOND_ACCEPTOR>
9

> <PUBCHEM_CACTVS_HBOND_DONOR>
0

> <PUBCHEM_CACTVS_ROTATABLE_BOND>
14

> <PUBCHEM_CACTVS_SUBSKEYS>
AAADcfB7OABgAAAAAAAAAAAAAAAAAAAAAAA8YIAAAAAAAAAB0AAAHgQEQAAADAzF2ga+j5IYFAqoAzD3THDC2DB1KjAI2Dk+bNgMJvLktZuEMShkwBHo6YeYyOCOMAACAAAIAABgAAQAABAAAAAAAAAAAA==

> <PUBCHEM_IUPAC_OPENEYE_NAME>
[(Z)-1-[4-methoxy-3-(2-pyridylsulfanylmethyl)phenyl]ethylideneamino] 4-(dipropylsulfamoyl)benzoate

> <PUBCHEM_IUPAC_CAS_NAME>
4-(dipropylsulfamoyl)benzoic acid [(Z)-1-[4-methoxy-3-[(2-pyridinylthio)methyl]phenyl]ethylideneamino] ester

> <PUBCHEM_IUPAC_NAME_MARKUP>
[(<I>Z</I>)-1-[4-methoxy-3-(pyridin-2-ylsulfanylmethyl)phenyl]ethylideneamino] 4-(dipropylsulfamoyl)benzoate

> <PUBCHEM_IUPAC_NAME>
[(Z)-1-[4-methoxy-3-(pyridin-2-ylsulfanylmethyl)phenyl]ethylideneamino] 4-(dipropylsulfamoyl)benzoate

> <PUBCHEM_IUPAC_SYSTEMATIC_NAME>
[(Z)-1-[4-methoxy-3-(pyridin-2-ylsulfanylmethyl)phenyl]ethylideneamino] 4-(dipropylsulfamoyl)benzoate

> <PUBCHEM_IUPAC_TRADITIONAL_NAME>
4-(dipropylsulfamoyl)benzoic acid [(Z)-1-[4-methoxy-3-[(2-pyridylthio)methyl]phenyl]ethylideneamino] ester

> <PUBCHEM_IUPAC_INCHI>
InChI=1S/C28H33N3O5S2/c1-5-17-31(18-6-2)38(33,34)25-13-10-22(11-14-25)28(32)36-30-21(3)23-12-15-26(35-4)24(19-23)20-37-27-9-7-8-16-29-27/h7-16,19H,5-6,17-18,20H2,1-4H3/b30-21-

> <PUBCHEM_IUPAC_INCHIKEY>
NYXXIOSFOWNQPD-OFWBYEQRSA-N

> <PUBCHEM_XLOGP3_AA>
5.8

> <PUBCHEM_EXACT_MASS>
555.18616351

> <PUBCHEM_MOLECULAR_FORMULA>
C28H33N3O5S2

> <PUBCHEM_MOLECULAR_WEIGHT>
555.7

> <PUBCHEM_SMILES>
CCCN(CCC)S(=O)(=O)C1=CC=C(C=C1)C(=O)O/N=C(/C)\C2=CC(=C(C=C2)OC)CSC3=CC=CC=N3

> <PUBCHEM_CONNECTIVITY_SMILES>
CCCN(CCC)S(=O)(=O)C1=CC=C(C=C1)C(=O)ON=C(C)C2=CC(=C(C=C2)OC)CSC3=CC=CC=N3

> <PUBCHEM_CACTVS_TPSA>
132

> <PUBCHEM_MONOISOTOPIC_WEIGHT>
555.18616351

> <PUBCHEM_TOTAL_CHARGE>
0

> <PUBCHEM_HEAVY_ATOM_COUNT>
38

> <PUBCHEM_ATOM_DEF_STEREO_COUNT>
0

> <PUBCHEM_ATOM_UDEF_STEREO_COUNT>
0

> <PUBCHEM_BOND_DEF_STEREO_COUNT>
1

> <PUBCHEM_BOND_UDEF_STEREO_COUNT>
0

> <PUBCHEM_ISOTOPIC_ATOM_COUNT>
0

> <PUBCHEM_COMPONENT_COUNT>
1

> <PUBCHEM_CACTVS_TAUTO_COUNT>
-1

> <PUBCHEM_COORDINATE_TYPE>
1
5
255

> <PUBCHEM_BONDANNOTATIONS>
10  33  8
10  37  8
15  18  8
15  19  8
18  20  8
19  21  8
20  22  8
21  22  8
24  26  8
24  27  8
25  26  8
25  30  8
27  31  8
30  31  8
33  35  8
35  36  8
36  38  8
37  38  8

> <minimizedAffinity>
-5.19151

> <CNNscore>
0.1118565574

> <CNNaffinity>
4.3078603745

> <CNN_VS>
0.4818624258

> <CNNaffinity_variance>
2.0778250694

$$$$
5713517


 38 40  0  0  0  0  0  0  0  0999 V2000
    5.2567    3.9231    9.5815 O   0  0  0  0  0  0  0  0  0  0  0  0
    4.6343    3.8720   10.3624 N   0  0  0  0  0  0  0  0  0  0  0  0
    3.6589    4.0537   10.2372 C   0  0  0  0  0  0  0  0  0  0  0  0
    3.0365    4.0025   11.0183 C   0  0  0  0  0  0  0  0  0  0  0  0
    3.0790    5.4423    8.0612 C   0  0  0  0  0  0  0  0  0  0  0  0
    3.3060    4.2865    9.3310 C   0  0  0  0  0  0  0  0  0  0  0  0
    3.4319    5.2095    8.9674 C   0  0  0  0  0  0  0  0  0  0  0  0
    2.6002    4.7522    7.5186 C   0  0  0  0  0  0  0  0  0  0  0  0
    2.8272    3.5963    8.7884 C   0  0  0  0  0  0  0  0  0  0  0  0
    2.4743    3.8292    7.8822 C   0  0  0  0  0  0  0  0  0  0  0  0
    2.2473    4.9850    6.6123 O   0  0  0  0  0  0  0  0  0  0  0  0
    1.7289    4.3088    6.0888 C   0  0  0  0  0  0  0  0  0  0  0  0
    3.2049    6.3653    7.6975 C   0  0  0  0  0  0  0  0  0  0  0  0
    3.8896    6.9725    8.1007 S   0  0  0  0  0  0  0  0  0  0  0  0
    4.3771    7.6894    6.6013 N   0  0  0  0  0  0  0  0  0  0  0  0
    4.2216    7.7632    7.5863 C   0  0  0  0  0  0  0  0  0  0  0  0
    4.3980    8.6276    8.0570 C   0  0  0  0  0  0  0  0  0  0  0  0
    4.7300    9.4183    7.5426 C   0  0  0  0  0  0  0  0  0  0  0  0
    4.7090    8.4802    6.0869 C   0  0  0  0  0  0  0  0  0  0  0  0
    4.8855    9.3446    6.5576 C   0  0  0  0  0  0  0  0  0  0  0  0
    6.7139    3.3705   10.3372 O   0  0  0  0  0  0  0  0  0  0  0  0
    6.2414    4.0110    9.7318 C   0  0  0  0  0  0  0  0  0  0  0  0
    7.7781    6.1962    8.3668 C   0  0  0  0  0  0  0  0  0  0  0  0
    7.3619    5.4649    7.8264 C   0  0  0  0  0  0  0  0  0  0  0  0
    7.6821    6.1992    9.3622 C   0  0  0  0  0  0  0  0  0  0  0  0
    6.8497    4.7365    8.2814 C   0  0  0  0  0  0  0  0  0  0  0  0
    7.1698    5.4707    9.8172 C   0  0  0  0  0  0  0  0  0  0  0  0
    6.7536    4.7394    9.2768 C   0  0  0  0  0  0  0  0  0  0  0  0
    8.2904    6.9246    7.9118 S   0  0  0  0  0  0  0  0  0  0  0  0
    7.6561    7.6027    8.2832 O   0  0  0  0  0  0  0  0  0  0  0  0
    8.9246    6.2466    7.5404 O   0  0  0  0  0  0  0  0  0  0  0  0
    8.8026    7.6530    7.4567 N   0  0  0  0  0  0  0  0  0  0  0  0
    8.3630    8.2067    6.7495 C   0  0  0  0  0  0  0  0  0  0  0  0
    8.6500    8.1191    5.7956 C   0  0  0  0  0  0  0  0  0  0  0  0
    8.2042    8.6662    5.0871 C   0  0  0  0  0  0  0  0  0  0  0  0
    9.7543    7.8277    7.7090 C   0  0  0  0  0  0  0  0  0  0  0  0
    9.9981    8.6713    8.1875 C   0  0  0  0  0  0  0  0  0  0  0  0
   10.9424    8.8268    8.4773 C   0  0  0  0  0  0  0  0  0  0  0  0
 29 30  2  0  0  0
 29 31  2  0  0  0
 29 32  1  0  0  0
 29 23  1  0  0  0
 14 13  1  0  0  0
 14 16  1  0  0  0
  1  2  1  0  0  0
  1 22  1  0  0  0
 21 22  2  0  0  0
 11  8  1  0  0  0
 11 12  1  0  0  0
 32 33  1  0  0  0
 32 36  1  0  0  0
  2  3  2  0  0  0
 15 16  1  0  0  0
 15 19  2  0  0  0
 33 34  1  0  0  0
 36 37  1  0  0  0
 34 35  1  0  0  0
 37 38  1  0  0  0
 23 24  2  0  0  0
 23 25  1  0  0  0
 24 26  1  0  0  0
 25 27  2  0  0  0
 26 28  2  0  0  0
 27 28  1  0  0  0
 28 22  1  0  0  0
  5  7  1  0  0  0
  5  8  2  0  0  0
  5 13  1  0  0  0
  6  7  2  0  0  0
  6  3  1  0  0  0
  6  9  1  0  0  0
  8 10  1  0  0  0
  3  4  1  0  0  0
  9 10  2  0  0  0
 16 17  2  0  0  0
 17 18  1  0  0  0
 18 20  2  0  0  0
 19 20  1  0  0  0
M  END
> <PUBCHEM_COMPOUND_CID>
5713517

> <PUBCHEM_COMPOUND_CANONICALIZED>
1

> <PUBCHEM_CACTVS_COMPLEXITY>
849

> <PUBCHEM_CACTVS_HBOND_ACCEPTOR>
9

> <PUBCHEM_CACTVS_HBOND_DONOR>
0

> <PUBCHEM_CACTVS_ROTATABLE_BOND>
14

> <PUBCHEM_CACTVS_SUBSKEYS>
AAADcfB7OABgAAAAAAAAAAAAAAAAAAAAAAA8YIAAAAAAAAAB0AAAHgQEQAAADAzF2ga+j5IYFAqoAzD3THDC2DB1KjAI2Dk+bNgMJvLktZuEMShkwBHo6YeYyOCOMAACAAAIAABgAAQAABAAAAAAAAAAAA==

> <PUBCHEM_IUPAC_OPENEYE_NAME>
[(Z)-1-[4-methoxy-3-(2-pyridylsulfanylmethyl)phenyl]ethylideneamino] 4-(dipropylsulfamoyl)benzoate

> <PUBCHEM_IUPAC_CAS_NAME>
4-(dipropylsulfamoyl)benzoic acid [(Z)-1-[4-methoxy-3-[(2-pyridinylthio)methyl]phenyl]ethylideneamino] ester

> <PUBCHEM_IUPAC_NAME_MARKUP>
[(<I>Z</I>)-1-[4-methoxy-3-(pyridin-2-ylsulfanylmethyl)phenyl]ethylideneamino] 4-(dipropylsulfamoyl)benzoate

> <PUBCHEM_IUPAC_NAME>
[(Z)-1-[4-methoxy-3-(pyridin-2-ylsulfanylmethyl)phenyl]ethylideneamino] 4-(dipropylsulfamoyl)benzoate

> <PUBCHEM_IUPAC_SYSTEMATIC_NAME>
[(Z)-1-[4-methoxy-3-(pyridin-2-ylsulfanylmethyl)phenyl]ethylideneamino] 4-(dipropylsulfamoyl)benzoate

> <PUBCHEM_IUPAC_TRADITIONAL_NAME>
4-(dipropylsulfamoyl)benzoic acid [(Z)-1-[4-methoxy-3-[(2-pyridylthio)methyl]phenyl]ethylideneamino] ester

> <PUBCHEM_IUPAC_INCHI>
InChI=1S/C28H33N3O5S2/c1-5-17-31(18-6-2)38(33,34)25-13-10-22(11-14-25)28(32)36-30-21(3)23-12-15-26(35-4)24(19-23)20-37-27-9-7-8-16-29-27/h7-16,19H,5-6,17-18,20H2,1-4H3/b30-21-

> <PUBCHEM_IUPAC_INCHIKEY>
NYXXIOSFOWNQPD-OFWBYEQRSA-N

> <PUBCHEM_XLOGP3_AA>
5.8

> <PUBCHEM_EXACT_MASS>
555.18616351

> <PUBCHEM_MOLECULAR_FORMULA>
C28H33N3O5S2

> <PUBCHEM_MOLECULAR_WEIGHT>
555.7

> <PUBCHEM_SMILES>
CCCN(CCC)S(=O)(=O)C1=CC=C(C=C1)C(=O)O/N=C(/C)\C2=CC(=C(C=C2)OC)CSC3=CC=CC=N3

> <PUBCHEM_CONNECTIVITY_SMILES>
CCCN(CCC)S(=O)(=O)C1=CC=C(C=C1)C(=O)ON=C(C)C2=CC(=C(C=C2)OC)CSC3=CC=CC=N3

> <PUBCHEM_CACTVS_TPSA>
132

> <PUBCHEM_MONOISOTOPIC_WEIGHT>
555.18616351

> <PUBCHEM_TOTAL_CHARGE>
0

> <PUBCHEM_HEAVY_ATOM_COUNT>
38

> <PUBCHEM_ATOM_DEF_STEREO_COUNT>
0

> <PUBCHEM_ATOM_UDEF_STEREO_COUNT>
0

> <PUBCHEM_BOND_DEF_STEREO_COUNT>
1

> <PUBCHEM_BOND_UDEF_STEREO_COUNT>
0

> <PUBCHEM_ISOTOPIC_ATOM_COUNT>
0

> <PUBCHEM_COMPONENT_COUNT>
1

> <PUBCHEM_CACTVS_TAUTO_COUNT>
-1

> <PUBCHEM_COORDINATE_TYPE>
1
5
255

> <PUBCHEM_BONDANNOTATIONS>
10  33  8
10  37  8
15  18  8
15  19  8
18  20  8
19  21  8
20  22  8
21  22  8
24  26  8
24  27  8
25  26  8
25  30  8
27  31  8
30  31  8
33  35  8
35  36  8
36  38  8
37  38  8

> <minimizedAffinity>
-5.33053

> <CNNscore>
0.1021007150

> <CNNaffinity>
4.2326145172

> <CNN_VS>
0.4321529567

> <CNNaffinity_variance>
2.3781721592

$$$$
5713517


 38 40  0  0  0  0  0  0  0  0999 V2000
    4.4694   10.1773    7.2920 O   0  0  0  0  0  0  0  0  0  0  0  0
    4.6898   11.1504    7.2243 N   0  0  0  0  0  0  0  0  0  0  0  0
    5.2326   11.4879    6.4553 C   0  0  0  0  0  0  0  0  0  0  0  0
    5.4529   12.4610    6.3877 C   0  0  0  0  0  0  0  0  0  0  0  0
    6.6198    9.5789    5.2588 C   0  0  0  0  0  0  0  0  0  0  0  0
    5.5551   10.8523    5.7539 C   0  0  0  0  0  0  0  0  0  0  0  0
    6.2972   10.2145    5.9602 C   0  0  0  0  0  0  0  0  0  0  0  0
    6.2002    9.5811    4.3511 C   0  0  0  0  0  0  0  0  0  0  0  0
    5.1356   10.8544    4.8462 C   0  0  0  0  0  0  0  0  0  0  0  0
    5.4581   10.2188    4.1448 C   0  0  0  0  0  0  0  0  0  0  0  0
    6.5227    8.9454    3.6496 O   0  0  0  0  0  0  0  0  0  0  0  0
    6.4274    9.1784    2.6819 C   0  0  0  0  0  0  0  0  0  0  0  0
    7.3618    8.9411    5.4651 C   0  0  0  0  0  0  0  0  0  0  0  0
    7.6608    8.8108    6.4105 S   0  0  0  0  0  0  0  0  0  0  0  0
    9.1320    7.9189    6.2106 N   0  0  0  0  0  0  0  0  0  0  0  0
    8.2401    8.0313    6.6487 C   0  0  0  0  0  0  0  0  0  0  0  0
    7.9277    7.3642    7.3249 C   0  0  0  0  0  0  0  0  0  0  0  0
    8.5070    6.5848    7.5632 C   0  0  0  0  0  0  0  0  0  0  0  0
    9.7114    7.1394    6.4489 C   0  0  0  0  0  0  0  0  0  0  0  0
    9.3989    6.4724    7.1251 C   0  0  0  0  0  0  0  0  0  0  0  0
    3.5428   10.3933    8.7393 O   0  0  0  0  0  0  0  0  0  0  0  0
    4.0898    9.8084    8.1404 C   0  0  0  0  0  0  0  0  0  0  0  0
    4.5923    6.9471    8.8891 C   0  0  0  0  0  0  0  0  0  0  0  0
    4.0328    7.1638    8.0891 C   0  0  0  0  0  0  0  0  0  0  0  0
    4.9843    7.6843    9.4396 C   0  0  0  0  0  0  0  0  0  0  0  0
    3.8653    8.1176    7.8395 C   0  0  0  0  0  0  0  0  0  0  0  0
    4.8168    8.6381    9.1900 C   0  0  0  0  0  0  0  0  0  0  0  0
    4.2573    8.8547    8.3900 C   0  0  0  0  0  0  0  0  0  0  0  0
    4.7598    5.9934    9.1387 S   0  0  0  0  0  0  0  0  0  0  0  0
    4.5504    6.2063   10.0930 O   0  0  0  0  0  0  0  0  0  0  0  0
    4.9692    5.7805    8.1844 O   0  0  0  0  0  0  0  0  0  0  0  0
    4.9273    5.0397    9.3883 N   0  0  0  0  0  0  0  0  0  0  0  0
    4.3323    4.3182    9.0339 C   0  0  0  0  0  0  0  0  0  0  0  0
    3.7218    3.8245    9.6532 C   0  0  0  0  0  0  0  0  0  0  0  0
    3.1102    3.1190    9.2952 C   0  0  0  0  0  0  0  0  0  0  0  0
    5.6897    4.8073    9.9922 C   0  0  0  0  0  0  0  0  0  0  0  0
    6.4589    4.2720    9.6431 C   0  0  0  0  0  0  0  0  0  0  0  0
    7.2537    4.1004   10.2252 C   0  0  0  0  0  0  0  0  0  0  0  0
 29 30  2  0  0  0
 29 31  2  0  0  0
 29 32  1  0  0  0
 29 23  1  0  0  0
 14 13  1  0  0  0
 14 16  1  0  0  0
  1  2  1  0  0  0
  1 22  1  0  0  0
 21 22  2  0  0  0
 11  8  1  0  0  0
 11 12  1  0  0  0
 32 33  1  0  0  0
 32 36  1  0  0  0
  2  3  2  0  0  0
 15 16  1  0  0  0
 15 19  2  0  0  0
 33 34  1  0  0  0
 36 37  1  0  0  0
 34 35  1  0  0  0
 37 38  1  0  0  0
 23 24  2  0  0  0
 23 25  1  0  0  0
 24 26  1  0  0  0
 25 27  2  0  0  0
 26 28  2  0  0  0
 27 28  1  0  0  0
 28 22  1  0  0  0
  5  7  1  0  0  0
  5  8  2  0  0  0
  5 13  1  0  0  0
  6  7  2  0  0  0
  6  3  1  0  0  0
  6  9  1  0  0  0
  8 10  1  0  0  0
  3  4  1  0  0  0
  9 10  2  0  0  0
 16 17  2  0  0  0
 17 18  1  0  0  0
 18 20  2  0  0  0
 19 20  1  0  0  0
M  END
> <PUBCHEM_COMPOUND_CID>
5713517

> <PUBCHEM_COMPOUND_CANONICALIZED>
1

> <PUBCHEM_CACTVS_COMPLEXITY>
849

> <PUBCHEM_CACTVS_HBOND_ACCEPTOR>
9

> <PUBCHEM_CACTVS_HBOND_DONOR>
0

> <PUBCHEM_CACTVS_ROTATABLE_BOND>
14

> <PUBCHEM_CACTVS_SUBSKEYS>
AAADcfB7OABgAAAAAAAAAAAAAAAAAAAAAAA8YIAAAAAAAAAB0AAAHgQEQAAADAzF2ga+j5IYFAqoAzD3THDC2DB1KjAI2Dk+bNgMJvLktZuEMShkwBHo6YeYyOCOMAACAAAIAABgAAQAABAAAAAAAAAAAA==

> <PUBCHEM_IUPAC_OPENEYE_NAME>
[(Z)-1-[4-methoxy-3-(2-pyridylsulfanylmethyl)phenyl]ethylideneamino] 4-(dipropylsulfamoyl)benzoate

> <PUBCHEM_IUPAC_CAS_NAME>
4-(dipropylsulfamoyl)benzoic acid [(Z)-1-[4-methoxy-3-[(2-pyridinylthio)methyl]phenyl]ethylideneamino] ester

> <PUBCHEM_IUPAC_NAME_MARKUP>
[(<I>Z</I>)-1-[4-methoxy-3-(pyridin-2-ylsulfanylmethyl)phenyl]ethylideneamino] 4-(dipropylsulfamoyl)benzoate

> <PUBCHEM_IUPAC_NAME>
[(Z)-1-[4-methoxy-3-(pyridin-2-ylsulfanylmethyl)phenyl]ethylideneamino] 4-(dipropylsulfamoyl)benzoate

> <PUBCHEM_IUPAC_SYSTEMATIC_NAME>
[(Z)-1-[4-methoxy-3-(pyridin-2-ylsulfanylmethyl)phenyl]ethylideneamino] 4-(dipropylsulfamoyl)benzoate

> <PUBCHEM_IUPAC_TRADITIONAL_NAME>
4-(dipropylsulfamoyl)benzoic acid [(Z)-1-[4-methoxy-3-[(2-pyridylthio)methyl]phenyl]ethylideneamino] ester

> <PUBCHEM_IUPAC_INCHI>
InChI=1S/C28H33N3O5S2/c1-5-17-31(18-6-2)38(33,34)25-13-10-22(11-14-25)28(32)36-30-21(3)23-12-15-26(35-4)24(19-23)20-37-27-9-7-8-16-29-27/h7-16,19H,5-6,17-18,20H2,1-4H3/b30-21-

> <PUBCHEM_IUPAC_INCHIKEY>
NYXXIOSFOWNQPD-OFWBYEQRSA-N

> <PUBCHEM_XLOGP3_AA>
5.8

> <PUBCHEM_EXACT_MASS>
555.18616351

> <PUBCHEM_MOLECULAR_FORMULA>
C28H33N3O5S2

> <PUBCHEM_MOLECULAR_WEIGHT>
555.7

> <PUBCHEM_SMILES>
CCCN(CCC)S(=O)(=O)C1=CC=C(C=C1)C(=O)O/N=C(/C)\C2=CC(=C(C=C2)OC)CSC3=CC=CC=N3

> <PUBCHEM_CONNECTIVITY_SMILES>
CCCN(CCC)S(=O)(=O)C1=CC=C(C=C1)C(=O)ON=C(C)C2=CC(=C(C=C2)OC)CSC3=CC=CC=N3

> <PUBCHEM_CACTVS_TPSA>
132

> <PUBCHEM_MONOISOTOPIC_WEIGHT>
555.18616351

> <PUBCHEM_TOTAL_CHARGE>
0

> <PUBCHEM_HEAVY_ATOM_COUNT>
38

> <PUBCHEM_ATOM_DEF_STEREO_COUNT>
0

> <PUBCHEM_ATOM_UDEF_STEREO_COUNT>
0

> <PUBCHEM_BOND_DEF_STEREO_COUNT>
1

> <PUBCHEM_BOND_UDEF_STEREO_COUNT>
0

> <PUBCHEM_ISOTOPIC_ATOM_COUNT>
0

> <PUBCHEM_COMPONENT_COUNT>
1

> <PUBCHEM_CACTVS_TAUTO_COUNT>
-1

> <PUBCHEM_COORDINATE_TYPE>
1
5
255

> <PUBCHEM_BONDANNOTATIONS>
10  33  8
10  37  8
15  18  8
15  19  8
18  20  8
19  21  8
20  22  8
21  22  8
24  26  8
24  27  8
25  26  8
25  30  8
27  31  8
30  31  8
33  35  8
35  36  8
36  38  8
37  38  8

> <minimizedAffinity>
-4.69161

> <CNNscore>
0.1006522924

> <CNNaffinity>
4.5975265503

> <CNN_VS>
0.4627515972

> <CNNaffinity_variance>
0.7402848601

$$$$
5713517


 38 40  0  0  0  0  0  0  0  0999 V2000
    4.0092    8.8030    7.5577 O   0  0  0  0  0  0  0  0  0  0  0  0
    4.1310    9.7766    7.7507 N   0  0  0  0  0  0  0  0  0  0  0  0
    4.9007   10.2734    7.3497 C   0  0  0  0  0  0  0  0  0  0  0  0
    5.0225   11.2470    7.5427 C   0  0  0  0  0  0  0  0  0  0  0  0
    6.8973    8.7276    6.5597 C   0  0  0  0  0  0  0  0  0  0  0  0
    5.5486    9.7965    6.7557 C   0  0  0  0  0  0  0  0  0  0  0  0
    6.2494    9.2044    7.1537 C   0  0  0  0  0  0  0  0  0  0  0  0
    6.8444    8.8428    5.5678 C   0  0  0  0  0  0  0  0  0  0  0  0
    5.4957    9.9117    5.7638 C   0  0  0  0  0  0  0  0  0  0  0  0
    6.1436    9.4349    5.1698 C   0  0  0  0  0  0  0  0  0  0  0  0
    7.4924    8.3659    4.9737 O   0  0  0  0  0  0  0  0  0  0  0  0
    7.7460    8.7615    4.0910 C   0  0  0  0  0  0  0  0  0  0  0  0
    7.5981    8.1355    6.9576 C   0  0  0  0  0  0  0  0  0  0  0  0
    7.3527    7.4818    7.6735 S   0  0  0  0  0  0  0  0  0  0  0  0
    8.9995    7.0014    7.9129 N   0  0  0  0  0  0  0  0  0  0  0  0
    8.0639    7.0871    8.2553 C   0  0  0  0  0  0  0  0  0  0  0  0
    7.8395    6.7781    9.1794 C   0  0  0  0  0  0  0  0  0  0  0  0
    8.5506    6.3834    9.7612 C   0  0  0  0  0  0  0  0  0  0  0  0
    9.7107    6.6068    8.4946 C   0  0  0  0  0  0  0  0  0  0  0  0
    9.4863    6.2978    9.4188 C   0  0  0  0  0  0  0  0  0  0  0  0
    2.4356    8.6025    8.2530 O   0  0  0  0  0  0  0  0  0  0  0  0
    3.3633    8.2633    8.0976 C   0  0  0  0  0  0  0  0  0  0  0  0
    4.2090    5.6261    9.2511 C   0  0  0  0  0  0  0  0  0  0  0  0
    3.9492    5.6902    8.2875 C   0  0  0  0  0  0  0  0  0  0  0  0
    4.1868    6.4411    9.8301 C   0  0  0  0  0  0  0  0  0  0  0  0
    3.6673    6.5693    7.9030 C   0  0  0  0  0  0  0  0  0  0  0  0
    3.9049    7.3202    9.4456 C   0  0  0  0  0  0  0  0  0  0  0  0
    3.6452    7.3842    8.4821 C   0  0  0  0  0  0  0  0  0  0  0  0
    4.4908    4.7471    9.6356 S   0  0  0  0  0  0  0  0  0  0  0  0
    4.7523    4.4319    8.7233 O   0  0  0  0  0  0  0  0  0  0  0  0
    4.2294    5.0623   10.5478 O   0  0  0  0  0  0  0  0  0  0  0  0
    4.7727    3.8681   10.0200 N   0  0  0  0  0  0  0  0  0  0  0  0
    5.5435    3.8244   10.6556 C   0  0  0  0  0  0  0  0  0  0  0  0
    6.4056    3.4072   10.3680 C   0  0  0  0  0  0  0  0  0  0  0  0
    7.1728    3.3536   11.0072 C   0  0  0  0  0  0  0  0  0  0  0  0
    4.2837    3.0327    9.7690 C   0  0  0  0  0  0  0  0  0  0  0  0
    3.7414    2.5458   10.4537 C   0  0  0  0  0  0  0  0  0  0  0  0
    3.3046    1.6771   10.2203 C   0  0  0  0  0  0  0  0  0  0  0  0
 29 30  2  0  0  0
 29 31  2  0  0  0
 29 32  1  0  0  0
 29 23  1  0  0  0
 14 13  1  0  0  0
 14 16  1  0  0  0
  1  2  1  0  0  0
  1 22  1  0  0  0
 21 22  2  0  0  0
 11  8  1  0  0  0
 11 12  1  0  0  0
 32 33  1  0  0  0
 32 36  1  0  0  0
  2  3  2  0  0  0
 15 16  1  0  0  0
 15 19  2  0  0  0
 33 34  1  0  0  0
 36 37  1  0  0  0
 34 35  1  0  0  0
 37 38  1  0  0  0
 23 24  2  0  0  0
 23 25  1  0  0  0
 24 26  1  0  0  0
 25 27  2  0  0  0
 26 28  2  0  0  0
 27 28  1  0  0  0
 28 22  1  0  0  0
  5  7  1  0  0  0
  5  8  2  0  0  0
  5 13  1  0  0  0
  6  7  2  0  0  0
  6  3  1  0  0  0
  6  9  1  0  0  0
  8 10  1  0  0  0
  3  4  1  0  0  0
  9 10  2  0  0  0
 16 17  2  0  0  0
 17 18  1  0  0  0
 18 20  2  0  0  0
 19 20  1  0  0  0
M  END
> <PUBCHEM_COMPOUND_CID>
5713517

> <PUBCHEM_COMPOUND_CANONICALIZED>
1

> <PUBCHEM_CACTVS_COMPLEXITY>
849

> <PUBCHEM_CACTVS_HBOND_ACCEPTOR>
9

> <PUBCHEM_CACTVS_HBOND_DONOR>
0

> <PUBCHEM_CACTVS_ROTATABLE_BOND>
14

> <PUBCHEM_CACTVS_SUBSKEYS>
AAADcfB7OABgAAAAAAAAAAAAAAAAAAAAAAA8YIAAAAAAAAAB0AAAHgQEQAAADAzF2ga+j5IYFAqoAzD3THDC2DB1KjAI2Dk+bNgMJvLktZuEMShkwBHo6YeYyOCOMAACAAAIAABgAAQAABAAAAAAAAAAAA==

> <PUBCHEM_IUPAC_OPENEYE_NAME>
[(Z)-1-[4-methoxy-3-(2-pyridylsulfanylmethyl)phenyl]ethylideneamino] 4-(dipropylsulfamoyl)benzoate

> <PUBCHEM_IUPAC_CAS_NAME>
4-(dipropylsulfamoyl)benzoic acid [(Z)-1-[4-methoxy-3-[(2-pyridinylthio)methyl]phenyl]ethylideneamino] ester

> <PUBCHEM_IUPAC_NAME_MARKUP>
[(<I>Z</I>)-1-[4-methoxy-3-(pyridin-2-ylsulfanylmethyl)phenyl]ethylideneamino] 4-(dipropylsulfamoyl)benzoate

> <PUBCHEM_IUPAC_NAME>
[(Z)-1-[4-methoxy-3-(pyridin-2-ylsulfanylmethyl)phenyl]ethylideneamino] 4-(dipropylsulfamoyl)benzoate

> <PUBCHEM_IUPAC_SYSTEMATIC_NAME>
[(Z)-1-[4-methoxy-3-(pyridin-2-ylsulfanylmethyl)phenyl]ethylideneamino] 4-(dipropylsulfamoyl)benzoate

> <PUBCHEM_IUPAC_TRADITIONAL_NAME>
4-(dipropylsulfamoyl)benzoic acid [(Z)-1-[4-methoxy-3-[(2-pyridylthio)methyl]phenyl]ethylideneamino] ester

> <PUBCHEM_IUPAC_INCHI>
InChI=1S/C28H33N3O5S2/c1-5-17-31(18-6-2)38(33,34)25-13-10-22(11-14-25)28(32)36-30-21(3)23-12-15-26(35-4)24(19-23)20-37-27-9-7-8-16-29-27/h7-16,19H,5-6,17-18,20H2,1-4H3/b30-21-

> <PUBCHEM_IUPAC_INCHIKEY>
NYXXIOSFOWNQPD-OFWBYEQRSA-N

> <PUBCHEM_XLOGP3_AA>
5.8

> <PUBCHEM_EXACT_MASS>
555.18616351

> <PUBCHEM_MOLECULAR_FORMULA>
C28H33N3O5S2

> <PUBCHEM_MOLECULAR_WEIGHT>
555.7

> <PUBCHEM_SMILES>
CCCN(CCC)S(=O)(=O)C1=CC=C(C=C1)C(=O)O/N=C(/C)\C2=CC(=C(C=C2)OC)CSC3=CC=CC=N3

> <PUBCHEM_CONNECTIVITY_SMILES>
CCCN(CCC)S(=O)(=O)C1=CC=C(C=C1)C(=O)ON=C(C)C2=CC(=C(C=C2)OC)CSC3=CC=CC=N3

> <PUBCHEM_CACTVS_TPSA>
132

> <PUBCHEM_MONOISOTOPIC_WEIGHT>
555.18616351

> <PUBCHEM_TOTAL_CHARGE>
0

> <PUBCHEM_HEAVY_ATOM_COUNT>
38

> <PUBCHEM_ATOM_DEF_STEREO_COUNT>
0

> <PUBCHEM_ATOM_UDEF_STEREO_COUNT>
0

> <PUBCHEM_BOND_DEF_STEREO_COUNT>
1

> <PUBCHEM_BOND_UDEF_STEREO_COUNT>
0

> <PUBCHEM_ISOTOPIC_ATOM_COUNT>
0

> <PUBCHEM_COMPONENT_COUNT>
1

> <PUBCHEM_CACTVS_TAUTO_COUNT>
-1

> <PUBCHEM_COORDINATE_TYPE>
1
5
255

> <PUBCHEM_BONDANNOTATIONS>
10  33  8
10  37  8
15  18  8
15  19  8
18  20  8
19  21  8
20  22  8
21  22  8
24  26  8
24  27  8
25  26  8
25  30  8
27  31  8
30  31  8
33  35  8
35  36  8
36  38  8
37  38  8

> <minimizedAffinity>
-5.15770

> <CNNscore>
0.0948837847

> <CNNaffinity>
4.7256360054

> <CNN_VS>
0.4483862221

> <CNNaffinity_variance>
0.6552475691

$$$$
5713517


 38 40  0  0  0  0  0  0  0  0999 V2000
    6.4407    7.8900    1.5097 O   0  0  0  0  0  0  0  0  0  0  0  0
    6.5919    6.9903    1.1003 N   0  0  0  0  0  0  0  0  0  0  0  0
    7.5200    6.6917    0.8777 C   0  0  0  0  0  0  0  0  0  0  0  0
    7.6711    5.7920    0.4682 C   0  0  0  0  0  0  0  0  0  0  0  0
    9.5015    7.8921    2.1554 C   0  0  0  0  0  0  0  0  0  0  0  0
    8.2969    7.2929    1.0646 C   0  0  0  0  0  0  0  0  0  0  0  0
    8.7245    7.2910    1.9685 C   0  0  0  0  0  0  0  0  0  0  0  0
    9.8508    8.4952    1.4383 C   0  0  0  0  0  0  0  0  0  0  0  0
    8.6462    7.8960    0.3475 C   0  0  0  0  0  0  0  0  0  0  0  0
    9.4231    8.4972    0.5344 C   0  0  0  0  0  0  0  0  0  0  0  0
   10.6278    9.0965    1.6252 O   0  0  0  0  0  0  0  0  0  0  0  0
   11.0491    9.6149    0.8811 C   0  0  0  0  0  0  0  0  0  0  0  0
    9.9291    7.8902    3.0594 C   0  0  0  0  0  0  0  0  0  0  0  0
    9.3640    7.8015    3.8796 S   0  0  0  0  0  0  0  0  0  0  0  0
    9.8099    8.8164    5.2104 N   0  0  0  0  0  0  0  0  0  0  0  0
    9.7752    7.9124    4.7844 C   0  0  0  0  0  0  0  0  0  0  0  0
   10.1516    7.1193    5.2632 C   0  0  0  0  0  0  0  0  0  0  0  0
   10.5628    7.2302    6.1680 C   0  0  0  0  0  0  0  0  0  0  0  0
   10.2210    8.9273    6.1152 C   0  0  0  0  0  0  0  0  0  0  0  0
   10.5975    8.1342    6.5940 C   0  0  0  0  0  0  0  0  0  0  0  0
    4.7172    7.7842    1.3745 O   0  0  0  0  0  0  0  0  0  0  0  0
    5.5499    8.3358    1.4223 C   0  0  0  0  0  0  0  0  0  0  0  0
    5.3754   11.3284    1.3036 C   0  0  0  0  0  0  0  0  0  0  0  0
    5.7163   10.8798    2.1298 C   0  0  0  0  0  0  0  0  0  0  0  0
    5.0928   10.7795    0.5170 C   0  0  0  0  0  0  0  0  0  0  0  0
    5.7744    9.8823    2.1694 C   0  0  0  0  0  0  0  0  0  0  0  0
    5.1510    9.7819    0.5566 C   0  0  0  0  0  0  0  0  0  0  0  0
    5.4918    9.3333    1.3828 C   0  0  0  0  0  0  0  0  0  0  0  0
    5.3173   12.3259    1.2640 S   0  0  0  0  0  0  0  0  0  0  0  0
    6.1467   12.3522    0.7061 O   0  0  0  0  0  0  0  0  0  0  0  0
    4.4878   12.2997    1.8219 O   0  0  0  0  0  0  0  0  0  0  0  0
    5.2591   13.3234    1.2245 N   0  0  0  0  0  0  0  0  0  0  0  0
    5.2233   13.7875    0.3394 C   0  0  0  0  0  0  0  0  0  0  0  0
    4.4239   14.3360    0.0944 C   0  0  0  0  0  0  0  0  0  0  0  0
    4.2997   14.6454   -0.8484 C   0  0  0  0  0  0  0  0  0  0  0  0
    5.2368   13.8569    2.0700 C   0  0  0  0  0  0  0  0  0  0  0  0
    5.9931   14.4720    2.2933 C   0  0  0  0  0  0  0  0  0  0  0  0
    6.0659   14.8621    3.2111 C   0  0  0  0  0  0  0  0  0  0  0  0
 29 30  2  0  0  0
 29 31  2  0  0  0
 29 32  1  0  0  0
 29 23  1  0  0  0
 14 13  1  0  0  0
 14 16  1  0  0  0
  1  2  1  0  0  0
  1 22  1  0  0  0
 21 22  2  0  0  0
 11  8  1  0  0  0
 11 12  1  0  0  0
 32 33  1  0  0  0
 32 36  1  0  0  0
  2  3  2  0  0  0
 15 16  1  0  0  0
 15 19  2  0  0  0
 33 34  1  0  0  0
 36 37  1  0  0  0
 34 35  1  0  0  0
 37 38  1  0  0  0
 23 24  2  0  0  0
 23 25  1  0  0  0
 24 26  1  0  0  0
 25 27  2  0  0  0
 26 28  2  0  0  0
 27 28  1  0  0  0
 28 22  1  0  0  0
  5  7  1  0  0  0
  5  8  2  0  0  0
  5 13  1  0  0  0
  6  7  2  0  0  0
  6  3  1  0  0  0
  6  9  1  0  0  0
  8 10  1  0  0  0
  3  4  1  0  0  0
  9 10  2  0  0  0
 16 17  2  0  0  0
 17 18  1  0  0  0
 18 20  2  0  0  0
 19 20  1  0  0  0
M  END
> <PUBCHEM_COMPOUND_CID>
5713517

> <PUBCHEM_COMPOUND_CANONICALIZED>
1

> <PUBCHEM_CACTVS_COMPLEXITY>
849

> <PUBCHEM_CACTVS_HBOND_ACCEPTOR>
9

> <PUBCHEM_CACTVS_HBOND_DONOR>
0

> <PUBCHEM_CACTVS_ROTATABLE_BOND>
14

> <PUBCHEM_CACTVS_SUBSKEYS>
AAADcfB7OABgAAAAAAAAAAAAAAAAAAAAAAA8YIAAAAAAAAAB0AAAHgQEQAAADAzF2ga+j5IYFAqoAzD3THDC2DB1KjAI2Dk+bNgMJvLktZuEMShkwBHo6YeYyOCOMAACAAAIAABgAAQAABAAAAAAAAAAAA==

> <PUBCHEM_IUPAC_OPENEYE_NAME>
[(Z)-1-[4-methoxy-3-(2-pyridylsulfanylmethyl)phenyl]ethylideneamino] 4-(dipropylsulfamoyl)benzoate

> <PUBCHEM_IUPAC_CAS_NAME>
4-(dipropylsulfamoyl)benzoic acid [(Z)-1-[4-methoxy-3-[(2-pyridinylthio)methyl]phenyl]ethylideneamino] ester

> <PUBCHEM_IUPAC_NAME_MARKUP>
[(<I>Z</I>)-1-[4-methoxy-3-(pyridin-2-ylsulfanylmethyl)phenyl]ethylideneamino] 4-(dipropylsulfamoyl)benzoate

> <PUBCHEM_IUPAC_NAME>
[(Z)-1-[4-methoxy-3-(pyridin-2-ylsulfanylmethyl)phenyl]ethylideneamino] 4-(dipropylsulfamoyl)benzoate

> <PUBCHEM_IUPAC_SYSTEMATIC_NAME>
[(Z)-1-[4-methoxy-3-(pyridin-2-ylsulfanylmethyl)phenyl]ethylideneamino] 4-(dipropylsulfamoyl)benzoate

> <PUBCHEM_IUPAC_TRADITIONAL_NAME>
4-(dipropylsulfamoyl)benzoic acid [(Z)-1-[4-methoxy-3-[(2-pyridylthio)methyl]phenyl]ethylideneamino] ester

> <PUBCHEM_IUPAC_INCHI>
InChI=1S/C28H33N3O5S2/c1-5-17-31(18-6-2)38(33,34)25-13-10-22(11-14-25)28(32)36-30-21(3)23-12-15-26(35-4)24(19-23)20-37-27-9-7-8-16-29-27/h7-16,19H,5-6,17-18,20H2,1-4H3/b30-21-

> <PUBCHEM_IUPAC_INCHIKEY>
NYXXIOSFOWNQPD-OFWBYEQRSA-N

> <PUBCHEM_XLOGP3_AA>
5.8

> <PUBCHEM_EXACT_MASS>
555.18616351

> <PUBCHEM_MOLECULAR_FORMULA>
C28H33N3O5S2

> <PUBCHEM_MOLECULAR_WEIGHT>
555.7

> <PUBCHEM_SMILES>
CCCN(CCC)S(=O)(=O)C1=CC=C(C=C1)C(=O)O/N=C(/C)\C2=CC(=C(C=C2)OC)CSC3=CC=CC=N3

> <PUBCHEM_CONNECTIVITY_SMILES>
CCCN(CCC)S(=O)(=O)C1=CC=C(C=C1)C(=O)ON=C(C)C2=CC(=C(C=C2)OC)CSC3=CC=CC=N3

> <PUBCHEM_CACTVS_TPSA>
132

> <PUBCHEM_MONOISOTOPIC_WEIGHT>
555.18616351

> <PUBCHEM_TOTAL_CHARGE>
0

> <PUBCHEM_HEAVY_ATOM_COUNT>
38

> <PUBCHEM_ATOM_DEF_STEREO_COUNT>
0

> <PUBCHEM_ATOM_UDEF_STEREO_COUNT>
0

> <PUBCHEM_BOND_DEF_STEREO_COUNT>
1

> <PUBCHEM_BOND_UDEF_STEREO_COUNT>
0

> <PUBCHEM_ISOTOPIC_ATOM_COUNT>
0

> <PUBCHEM_COMPONENT_COUNT>
1

> <PUBCHEM_CACTVS_TAUTO_COUNT>
-1

> <PUBCHEM_COORDINATE_TYPE>
1
5
255

> <PUBCHEM_BONDANNOTATIONS>
10  33  8
10  37  8
15  18  8
15  19  8
18  20  8
19  21  8
20  22  8
21  22  8
24  26  8
24  27  8
25  26  8
25  30  8
27  31  8
30  31  8
33  35  8
35  36  8
36  38  8
37  38  8

> <minimizedAffinity>
-5.56307

> <CNNscore>
0.0861575007

> <CNNaffinity>
4.6262969971

> <CNN_VS>
0.3985901773

> <CNNaffinity_variance>
1.2583845854

$$$$
